ieee_feeder/ieee13_Power_elem_kVA.txt

CIRCUIT ELEMENT POWER FLOW

(Power Flow into element from indicated Bus)

Power Delivery Elements

  Bus     Phase     kW     +j   kvar         kVA         PF

ELEMENT = "Vsource.SOURCE"
SOURCEBUS     1     -1229.9 +j   -588.6     1363.5       0.9020
SOURCEBUS     2      -966.7 +j   -356.2     1030.2       0.9383
SOURCEBUS     3     -1307.4 +j   -570.3     1426.4       0.9166
   TERMINAL TOTAL . -3504.0 +j  -1515.1     3817.6       0.9179
SOURCEBUS     0         0.0 +j      0.0        0.0       1.0000
SOURCEBUS     0         0.0 +j      0.0        0.0       1.0000
SOURCEBUS     0         0.0 +j      0.0        0.0       1.0000
   TERMINAL TOTAL .     0.0 +j      0.0        0.0       1.0000

ELEMENT = "Line.623645"
632           2       324.8 +j    126.1      348.4       0.9323
632           3        76.3 +j    131.9      152.4       0.5007
   TERMINAL TOTAL .   401.1 +j    257.9      476.9       0.8411
645           2      -324.0 +j   -125.3      347.4       0.9327
645           3       -76.2 +j   -131.8      152.3       0.5005
   TERMINAL TOTAL .  -400.2 +j   -257.1      475.7       0.8413

ELEMENT = "Line.623633"
632           1       161.0 +j    112.9      196.6       0.8187
632           2       120.6 +j     91.7      151.5       0.7961
632           3       120.6 +j     91.7      151.5       0.7960
   TERMINAL TOTAL .   402.2 +j    296.3      499.5       0.8051
633           1      -160.9 +j   -112.7      196.4       0.8189
633           2      -120.5 +j    -91.6      151.4       0.7962
633           3      -120.5 +j    -91.6      151.4       0.7960
   TERMINAL TOTAL .  -401.9 +j   -295.9      499.1       0.8052

ELEMENT = "Line.633634"
633           1       160.9 +j    112.7      196.4       0.8189
633           2       120.5 +j     91.6      151.4       0.7962
633           3       120.5 +j     91.6      151.4       0.7960
   TERMINAL TOTAL .   401.9 +j    295.9      499.1       0.8052
634           1      -160.0 +j   -110.0      194.1       0.8240
634           2      -120.0 +j    -90.0      150.0       0.8000
634           3      -120.0 +j    -90.0      150.0       0.8000
   TERMINAL TOTAL .  -400.0 +j   -290.0      494.0       0.8096

ELEMENT = "Line.645646"
645           2       154.0 +j      0.3      154.0       1.0000
645           3        76.2 +j    131.8      152.3       0.5005
   TERMINAL TOTAL .   230.2 +j    132.1      265.4       0.8673
646           2      -153.9 +j     -0.2      153.9       1.0000
646           3       -76.1 +j   -131.8      152.2       0.5003
   TERMINAL TOTAL .  -230.0 +j   -132.0      265.2       0.8673

ELEMENT = "Line.650632"
SOURCEBUS     1      1229.9 +j    588.6     1363.5       0.9020
SOURCEBUS     2       966.7 +j    356.2     1030.2       0.9383
SOURCEBUS     3      1307.4 +j    570.3     1426.4       0.9166
   TERMINAL TOTAL .  3504.0 +j   1515.1     3817.6       0.9179
632           1     -1222.7 +j   -561.8     1345.6       0.9087
632           2      -967.2 +j   -344.9     1026.9       0.9419
632           3     -1293.5 +j   -542.2     1402.6       0.9222
   TERMINAL TOTAL . -3483.4 +j  -1449.0     3772.8       0.9233

ELEMENT = "Line.684652"
684           1       128.3 +j     86.1      154.5       0.8303
   TERMINAL TOTAL .   128.3 +j     86.1      154.5       0.8303
652           1      -128.0 +j    -86.0      154.2       0.8301
   TERMINAL TOTAL .  -128.0 +j    -86.0      154.2       0.8301

ELEMENT = "Line.632671"
632           1      1053.2 +j    443.9     1142.9       0.9215
632           2       488.8 +j    108.2      500.7       0.9764
632           3      1038.1 +j    284.6     1076.4       0.9644
   TERMINAL TOTAL .  2580.1 +j    836.8     2712.4       0.9512
671           1     -1049.6 +j   -421.8     1131.2       0.9279
671           2      -490.8 +j   -106.8      502.3       0.9771
671           3     -1027.4 +j   -269.2     1062.1       0.9674
   TERMINAL TOTAL . -2567.8 +j   -797.8     2688.9       0.9550

ELEMENT = "Line.671684"
671           1       128.4 +j     86.2      154.6       0.8303
671           3       170.2 +j    -19.8      171.4      -0.9933
   TERMINAL TOTAL .   298.6 +j     66.4      305.9       0.9762
684           1      -128.3 +j    -86.1      154.5       0.8303
684           3      -170.1 +j     19.9      171.3      -0.9933
   TERMINAL TOTAL .  -298.4 +j    -66.2      305.7       0.9762

ELEMENT = "Line.684611"
684           3       170.1 +j    -19.9      171.3      -0.9933
   TERMINAL TOTAL .   170.1 +j    -19.9      171.3      -0.9933
611           3      -170.0 +j     20.0      171.1      -0.9932
   TERMINAL TOTAL .  -170.0 +j     20.0      171.1      -0.9932

ELEMENT = "Line.692675"
671           1       486.0 +j     -9.4      486.1      -0.9998
671           2        68.1 +j   -140.0      155.7      -0.4374
671           3       290.2 +j     11.8      290.4       0.9992
   TERMINAL TOTAL .   844.3 +j   -137.6      855.4      -0.9870
675           1      -485.0 +j     10.0      485.1      -0.9998
675           2       -68.0 +j    140.0      155.6      -0.4369
675           3      -290.0 +j    -12.0      290.2       0.9991
   TERMINAL TOTAL .  -842.9 +j    138.0      854.2      -0.9869

= = = = = = = = = = = = = = = = = = =  = = = = = = = = = = =  = =

Power Conversion Elements

  Bus     Phase     kW   +j  kvar         kVA         PF

ELEMENT = "Load.D646BC"
646           2     153.9 +j    0.2      153.9       1.0000
646           3      76.1 +j  131.7      152.2       0.5003
  TERMINAL TOTAL  .   230.0 +j    132.0      265.2       0.8673

ELEMENT = "Load.D671AB"
671           1     254.3 +j   -5.2      254.3      -0.9998
671           2     130.7 +j  225.2      260.4       0.5020
  TERMINAL TOTAL  .   385.0 +j    220.0      443.4       0.8682

ELEMENT = "Load.D671BC"
671           2     259.0 +j    2.6      259.0       1.0000
671           3     126.0 +j  217.4      251.3       0.5015
  TERMINAL TOTAL  .   385.0 +j    220.0      443.4       0.8683

ELEMENT = "Load.D671CA"
671           3     382.5 +j   25.7      383.4       0.9978
671           1     172.5 +j  345.3      386.0       0.4468
  TERMINAL TOTAL  .   555.0 +j    371.0      667.5       0.8314

ELEMENT = "Load.Y632A"
632           1       8.5 +j    5.0        9.9       0.8620
632           0       0.0 +j    0.0        0.0       1.0000
  TERMINAL TOTAL  .     8.5 +j      5.0        9.9       0.8620

ELEMENT = "Load.Y632B"
632           2      33.0 +j   19.0       38.1       0.8666
632           0       0.0 +j    0.0        0.0       1.0000
  TERMINAL TOTAL  .    33.0 +j     19.0       38.1       0.8666

ELEMENT = "Load.Y632C"
632           3      58.5 +j   34.0       67.7       0.8646
632           0       0.0 +j    0.0        0.0       1.0000
  TERMINAL TOTAL  .    58.5 +j     34.0       67.7       0.8646

ELEMENT = "Load.Y634A"
634           1     160.0 +j  110.0      194.2       0.8241
634           0       0.0 +j    0.0        0.0       1.0000
  TERMINAL TOTAL  .   160.0 +j    110.0      194.2       0.8241

ELEMENT = "Load.Y634B"
634           2     120.0 +j   90.0      150.0       0.8000
634           0       0.0 +j    0.0        0.0       1.0000
  TERMINAL TOTAL  .   120.0 +j     90.0      150.0       0.8000

ELEMENT = "Load.Y634C"
634           3     120.0 +j   90.0      150.0       0.8000
634           0       0.0 +j    0.0        0.0       1.0000
  TERMINAL TOTAL  .   120.0 +j     90.0      150.0       0.8000

ELEMENT = "Load.Y645B"
645           2     170.0 +j  125.0      211.0       0.8056
645           0       0.0 +j    0.0        0.0       1.0000
  TERMINAL TOTAL  .   170.0 +j    125.0      211.0       0.8056

ELEMENT = "Load.Y671A"
671           1       8.5 +j    5.0        9.9       0.8620
671           0       0.0 +j    0.0        0.0       1.0000
  TERMINAL TOTAL  .     8.5 +j      5.0        9.9       0.8620

ELEMENT = "Load.Y671B"
671           2      33.0 +j   19.0       38.1       0.8666
671           0       0.0 +j    0.0        0.0       1.0000
  TERMINAL TOTAL  .    33.0 +j     19.0       38.1       0.8666

ELEMENT = "Load.Y671C"
671           3      58.5 +j   34.0       67.7       0.8646
671           0       0.0 +j    0.0        0.0       1.0000
  TERMINAL TOTAL  .    58.5 +j     34.0       67.7       0.8646

ELEMENT = "Load.Y611C"
611           3     170.0 +j   80.0      187.9       0.9049
611           0       0.0 +j    0.0        0.0       1.0000
  TERMINAL TOTAL  .   170.0 +j     80.0      187.9       0.9049

ELEMENT = "Load.Y652A"
652           1     128.0 +j   86.0      154.2       0.8301
652           0       0.0 +j    0.0        0.0       1.0000
  TERMINAL TOTAL  .   128.0 +j     86.0      154.2       0.8301

ELEMENT = "Load.Y675A"
675           1     485.0 +j  190.0      520.9       0.9311
675           0       0.0 +j    0.0        0.0       1.0000
  TERMINAL TOTAL  .   485.0 +j    190.0      520.9       0.9311

ELEMENT = "Load.Y675B"
675           2      68.0 +j   60.0       90.7       0.7498
675           0       0.0 +j    0.0        0.0       1.0000
  TERMINAL TOTAL  .    68.0 +j     60.0       90.7       0.7498

ELEMENT = "Load.Y675C"
675           3     290.0 +j  212.0      359.2       0.8073
675           0       0.0 +j    0.0        0.0       1.0000
  TERMINAL TOTAL  .   290.0 +j    212.0      359.2       0.8073

ELEMENT = "Load.CAP611C"
611           3      -0.0 +j -100.0      100.0       0.0001
611           0       0.0 +j    0.0        0.0       1.0000
  TERMINAL TOTAL  .    -0.0 +j   -100.0      100.0       0.0001

ELEMENT = "Load.CAP675A"
675           1      -0.0 +j -200.0      200.0       0.0001
675           0       0.0 +j    0.0        0.0       1.0000
  TERMINAL TOTAL  .    -0.0 +j   -200.0      200.0       0.0001

ELEMENT = "Load.CAP675B"
675           2       0.0 +j -200.0      200.0      -0.0000
675           0       0.0 +j    0.0        0.0       1.0000
  TERMINAL TOTAL  .     0.0 +j   -200.0      200.0      -0.0000

ELEMENT = "Load.CAP675C"
675           3      -0.0 +j -200.0      200.0       0.0001
675           0       0.0 +j    0.0        0.0       1.0000
  TERMINAL TOTAL  .    -0.0 +j   -200.0      200.0       0.0001


Total Circuit Losses =   38.2 +j  113.2
